FeederExample/ABDD201/ABDD201CargaMT_Jan.dss
new load.3009007300M1 bus1=BMT155937150.1.2.3.0,Phases=3,kv=13.8,kw=105.809948360759,pf=0.92,Vminpu=0.93,Vmaxpu=1.5,model=2,daily=arqCurvaNormA4-5,status=variable
new load.3009007300M2 bus1=BMT155937150.1.2.3.0,Phases=3,kv=13.8,kw=105.809948360759,pf=0.92,Vminpu=0.93,Vmaxpu=1.5,model=3,daily=arqCurvaNormA4-5,status=variable
new load.3009007304M1 bus1=BMT155937239.1.2.3.0,Phases=3,kv=13.8,kw=44.3739675135072,pf=0.92,Vminpu=0.93,Vmaxpu=1.5,model=2,daily=arqCurvaNormA4-5,status=variable
new load.3009007304M2 bus1=BMT155937239.1.2.3.0,Phases=3,kv=13.8,kw=44.3739675135072,pf=0.92,Vminpu=0.93,Vmaxpu=1.5,model=3,daily=arqCurvaNormA4-5,status=variable
new load.3009009060M1 bus1=BMT155935582.1.2.3.0,Phases=3,kv=13.8,kw=75.243736801459,pf=0.92,Vminpu=0.93,Vmaxpu=1.5,model=2,daily=arqCurvaNormA4-6,status=variable
new load.3009009060M2 bus1=BMT155935582.1.2.3.0,Phases=3,kv=13.8,kw=75.243736801459,pf=0.92,Vminpu=0.93,Vmaxpu=1.5,model=3,daily=arqCurvaNormA4-6,status=variable
new load.3009013255M1 bus1=BMT155937143.1.2.3.0,Phases=3,kv=13.8,kw=181.74682014176,pf=0.92,Vminpu=0.93,Vmaxpu=1.5,model=2,daily=arqCurvaNormA4-6,status=variable
new load.3009013255M2 bus1=BMT155937143.1.2.3.0,Phases=3,kv=13.8,kw=181.74682014176,pf=0.92,Vminpu=0.93,Vmaxpu=1.5,model=3,daily=arqCurvaNormA4-6,status=variable
new load.3009018347M1 bus1=BMT119694131.1.2.3.0,Phases=3,kv=13.8,kw=53.619107412624,pf=0.92,Vminpu=0.93,Vmaxpu=1.5,model=2,daily=arqCurvaNormA4-3,status=variable
new load.3009018347M2 bus1=BMT119694131.1.2.3.0,Phases=3,kv=13.8,kw=53.619107412624,pf=0.92,Vminpu=0.93,Vmaxpu=1.5,model=3,daily=arqCurvaNormA4-3,status=variable
new load.3011555335M1 bus1=BMT119690484.1.2.3.0,Phases=3,kv=13.8,kw=0.0355649827877918,pf=0.92,Vminpu=0.93,Vmaxpu=1.5,model=2,daily=arqCurvaNormA4-1,status=variable
new load.3011555335M2 bus1=BMT119690484.1.2.3.0,Phases=3,kv=13.8,kw=0.0355649827877918,pf=0.92,Vminpu=0.93,Vmaxpu=1.5,model=3,daily=arqCurvaNormA4-1,status=variable
new load.3011664135M1 bus1=BMT155937183.1.2.3.0,Phases=3,kv=13.8,kw=32.6358129268015,pf=0.92,Vminpu=0.93,Vmaxpu=1.5,model=2,daily=arqCurvaNormA4-3,status=variable
new load.3011664135M2 bus1=BMT155937183.1.2.3.0,Phases=3,kv=13.8,kw=32.6358129268015,pf=0.92,Vminpu=0.93,Vmaxpu=1.5,model=3,daily=arqCurvaNormA4-3,status=variable
